Git is a distributed version control system.
Git is free software distibuted under the GPL.
Git is easy to learn.
New Line.(here is a bug!898989fjoaj&**&(Uhf))
new code here!